Feeders/37Bus/ieee37_VLN.Txt

SYMMETRICAL COMPONENT VOLTAGES BY BUS (for 3-phase buses)

Bus        Mag:   V1 (kV)    p.u.     V2 (kV)   %V2/V1    V0 (kV)    %V0/V1

sourcebus     132.8          1  0.0003366  0.0002535 8.638E-009 6.505E-009
799           2.582     0.9316    0.04634      1.795    0.2345     9.084
709           2.709     0.9774    0.07978      2.945 0.0002466  0.009105
775          0.2709     0.9774   0.007978      2.945 1.874E-009 6.92E-007
701           2.761     0.9961    0.06598       2.39  0.000682   0.02471
702           2.741     0.9891    0.07006      2.556 0.0005244   0.01913
705           2.738      0.988     0.0698      2.549 0.0005043   0.01842
713           2.736     0.9874    0.06981      2.551 0.0004587   0.01676
703           2.725     0.9832    0.07491      2.749 0.0004294   0.01576
727           2.722     0.9823    0.07554      2.775 0.0004058   0.01491
730           2.712     0.9787     0.0788      2.905  0.000288   0.01062
704           2.731     0.9854    0.06851      2.509 0.0003665   0.01342
714            2.73     0.9852    0.06854       2.51 0.0003603    0.0132
720           2.724      0.983    0.06674       2.45 0.0002928   0.01075
742           2.737     0.9875    0.06875      2.512 0.0004886   0.01785
712           2.737     0.9877    0.07044      2.573 0.0005043   0.01843
706           2.724     0.9828    0.06624      2.432 0.0002844   0.01044
725           2.723     0.9826    0.06578      2.416 0.0002809   0.01031
707           2.716     0.9802    0.06077      2.237 0.0002568  0.009453
724           2.715     0.9797    0.05952      2.192 0.0002553  0.009404
722           2.716     0.9799     0.0602      2.217 0.0002558  0.009418
708           2.703     0.9755    0.08192       3.03 0.0002099  0.007763
733           2.698     0.9737     0.0838      3.106 0.0001964   0.00728
732           2.703     0.9753     0.0823      3.045 0.0002099  0.007765
731           2.707      0.977    0.07872      2.908 0.0002151  0.007944
710           2.688     0.9699    0.08726      3.247 0.0002138  0.007955
735           2.687     0.9696    0.08775      3.266 0.0002138  0.007957
736           2.686     0.9691    0.08508      3.168 0.0002016  0.007509
711           2.681     0.9674    0.09176      3.423 0.0003205   0.01195
741            2.68     0.9672    0.09209      3.436 0.0003205   0.01196
740            2.68     0.9671    0.09222      3.441 0.0003205   0.01196
718           2.729     0.9846    0.06907      2.531 0.0003313   0.01214
744           2.721     0.9818    0.07569      2.782  0.000382   0.01404
734           2.691     0.9709    0.08692       3.23 0.0002204  0.008191
737           2.685     0.9688    0.08948      3.333 0.0002942   0.01096
738           2.682     0.9679    0.09078      3.384 0.0003205   0.01195
728            2.72     0.9814    0.07573      2.784 0.0003719   0.01367
729            2.72     0.9816    0.07587      2.789 0.0003756   0.01381
799r          2.797      1.009    0.05789       2.07 0.0008417   0.03009
